Version 4
SHEET 1 2452 724
WIRE 64 64 16 64
WIRE 224 80 128 80
WIRE 352 80 224 80
WIRE 64 96 -112 96
WIRE -336 112 -336 96
WIRE 224 112 224 80
WIRE 352 160 352 80
WIRE 400 160 352 160
WIRE 496 160 480 160
WIRE 576 160 496 160
WIRE 688 160 656 160
WIRE 16 192 16 64
WIRE 224 192 16 192
WIRE -112 208 -112 96
WIRE 224 208 224 192
WIRE 496 240 496 160
WIRE 512 240 496 240
WIRE 688 256 688 160
WIRE 688 256 576 256
WIRE 864 256 864 240
WIRE 944 256 864 256
WIRE 512 272 496 272
WIRE 864 288 864 256
WIRE 224 304 224 288
WIRE 224 304 16 304
WIRE -112 320 -112 288
WIRE -32 320 -112 320
WIRE 944 320 944 256
WIRE 944 320 896 320
WIRE 400 352 352 352
WIRE 496 352 496 272
WIRE 496 352 480 352
WIRE 576 352 496 352
WIRE 688 352 656 352
WIRE -112 368 -112 320
WIRE 16 384 16 304
WIRE 64 384 16 384
WIRE 864 384 864 352
WIRE 224 400 224 384
WIRE 224 400 128 400
WIRE 352 400 352 352
WIRE 352 400 224 400
WIRE -32 416 -32 320
WIRE 64 416 -32 416
WIRE 576 432 384 432
WIRE 480 496 480 480
WIRE 384 512 384 432
WIRE 448 512 384 512
WIRE 576 528 576 432
WIRE 576 528 512 528
WIRE 688 528 688 352
WIRE 688 528 576 528
WIRE 448 544 416 544
WIRE 480 576 480 560
WIRE 288 592 288 576
WIRE 416 592 416 544
WIRE 416 592 288 592
WIRE 288 608 288 592
WIRE 288 704 288 688
FLAG -336 112 0
FLAG 96 48 V+
FLAG -336 16 V+
FLAG 96 368 V+
FLAG 544 224 V+
FLAG -112 448 0
FLAG -352 320 0
FLAG -352 240 V-
FLAG 544 288 V-
FLAG 96 432 V-
FLAG 96 112 V-
FLAG 480 576 0
FLAG 480 480 V+
FLAG 288 704 0
FLAG 288 496 V+
FLAG 864 384 0
FLAG 864 160 V+
SYMBOL voltage -336 0 R0
WINDOW 123 0 0 Left 0
WINDOW 39 0 0 Left 0
SYMATTR InstName V1
SYMATTR Value 9
SYMBOL res 672 144 R90
WINDOW 0 0 56 VBottom 2
WINDOW 3 32 56 VTop 2
SYMATTR InstName R1
SYMATTR Value 10k
SYMBOL res 672 336 R90
WINDOW 0 0 56 VBottom 2
WINDOW 3 32 56 VTop 2
SYMATTR InstName R2
SYMATTR Value 10k
SYMBOL res 496 336 R90
WINDOW 0 0 56 VBottom 2
WINDOW 3 32 56 VTop 2
SYMATTR InstName R3
SYMATTR Value 10k
SYMBOL res 496 144 R90
WINDOW 0 0 56 VBottom 2
WINDOW 3 32 56 VTop 2
SYMATTR InstName R4
SYMATTR Value 10k
SYMBOL res 208 192 R0
SYMATTR InstName R5
SYMATTR Value 500
SYMBOL res 208 96 R0
SYMATTR InstName R6
SYMATTR Value 50k
SYMBOL res 208 288 R0
SYMATTR InstName R7
SYMATTR Value 50k
SYMBOL voltage -112 352 R0
WINDOW 123 0 0 Left 0
WINDOW 39 0 0 Left 0
SYMATTR InstName V2
SYMATTR Value 4.5
SYMBOL voltage -112 192 R0
WINDOW 123 0 0 Left 0
WINDOW 39 0 0 Left 0
WINDOW 3 24 44 Left 2
SYMATTR Value 10m
SYMATTR InstName V3
SYMBOL Opamps\\LM358 544 192 R0
SYMATTR InstName U1
SYMBOL Opamps\\LM358 96 336 R0
SYMATTR InstName U2
SYMBOL Opamps\\LM358 96 16 R0
SYMATTR InstName U3
SYMBOL voltage -352 224 R0
WINDOW 3 24 44 Left 2
WINDOW 123 0 0 Left 0
WINDOW 39 0 0 Left 0
SYMATTR Value 0
SYMATTR InstName V4
SYMBOL Opamps\\LM358 480 464 R0
SYMATTR InstName U5
SYMBOL res 272 480 R0
SYMATTR InstName R11
SYMATTR Value 10k
SYMBOL res 272 592 R0
SYMATTR InstName R12
SYMATTR Value 10k
SYMBOL res 848 144 R0
SYMATTR InstName R8
SYMATTR Value 10k
SYMBOL References\\TLV431 864 320 R0
SYMATTR InstName U4
SYMBOL References\\TLV431 0 0 R0
SYMATTR InstName U6
TEXT -120 512 Left 2 !.dc V3 0 1m
